  122
Geometry Step: 416
    C      3.08293768      0.98239531     -8.73473381      4.21920097
    H      2.43648613      0.18055606     -8.38010943      0.92101041
    H      2.61000620      1.93130856     -8.48591321      0.92513662
    H      3.14293067      0.91008402     -9.81964505      0.92029087
    C      4.47697797      0.88903299     -8.09960826      4.10005923
    H      4.37110594      0.97323614     -7.00765998      0.92425235
    O      5.66569078      1.99786797     -9.90294807      6.34028194
    C      5.34475788      2.06449348     -8.57261548      3.35322585
    O      5.71208627      2.98921797     -7.86525633      6.52020910
    C      6.45004657      3.08629900    -10.39084206      3.93348442
    H      7.40824268      3.14082674     -9.85695097      0.94406470
    H      6.63350793      2.91499393    -11.45566513      0.95217580
    H      5.91633842      4.03644223    -10.25792136      0.94136286
    C      6.55233574     -0.57582640     -7.75754283      4.12461459
    H      6.44306218     -0.50273425     -6.66928002      0.92772135
    H      7.15746552      0.28635121     -8.06310935      0.92891818
    C      5.15920011     -0.48055501     -8.42029630      4.11498997
    H      5.28089321     -0.55556554     -9.51125191      0.92157683
    O      4.08048604     -1.69550284     -6.61693601      6.34100428
    C      4.25627680     -1.63959129     -7.97491964      3.35190582
    O      3.72522025     -2.44144401     -8.72730689      6.52167322
    C      3.22744607     -2.74564226     -6.16092733      3.93342490
    H      3.63276625     -3.72474810     -6.44916752      0.94362562
    H      3.16915775     -2.67994838     -5.07046229      0.95158704
    H      2.22228335     -2.63884331     -6.58983040      0.94254525
    C      7.28582991     -1.87211016     -8.11669141      4.12350427
    H      6.68020170     -2.73488553     -7.81418565      0.92835010
    H      7.39979462     -1.94465550     -9.20451437      0.92789677
    C      8.67850771     -1.96643672     -7.44955881      4.11514274
    H      8.55274330     -1.88510916     -6.35933625      0.92206054
    O      9.82789737     -0.80873828     -9.24702818      6.34159379
    C      9.56893134     -0.79919584     -7.90082361      3.35389959
    O     10.01086756      0.06812532     -7.16481106      6.51732942
    C     10.64451163      0.26582533     -9.71231110      3.93329129
    H     11.62103529      0.25345353     -9.21051236      0.94255819
    H     10.78419610      0.13727943    -10.78970791      0.95202289
    H     10.15905049      1.23144374     -9.51760544      0.94330605
    C     10.75484859     -3.43250640     -7.10055509      4.12401771
    H     10.64377736     -3.36521274     -6.01221114      0.92748412
    H     11.35904030     -2.56813577     -7.40114214      0.92774304
    C      9.36058753     -3.33755395     -7.76379267      4.11527788
    H      9.48364171     -3.41800428     -8.85431314      0.92201654
    O      8.23154461     -4.50980633     -5.96190310      6.34152982
    C      8.46629461     -4.50224752     -7.31266725      3.35419481
    O      7.99792892     -5.35153960     -8.05341906      6.51718216
    C      7.40717458     -5.57974303     -5.49951345      3.93329400
    H      7.87354828     -6.54882774     -5.72117833      0.94329199
    H      7.29023818     -5.46864626     -4.41758233      0.95187423
    H      6.42139206     -5.54316828     -5.98171238      0.94271942
    C     11.48895609     -4.72644058     -7.46676651      4.12412589
    H     10.88825193     -5.59018320     -7.15757977      0.92753153
    H     11.59085818     -4.79861598     -8.55575316      0.92729329
    C     12.88927585     -4.81771983     -6.81504486      4.11517103
    H     12.77697550     -4.72412267     -5.72443575      0.92204764
    O     14.01023612     -3.67623206     -8.64094402      6.34168576
    C     13.78123278     -3.66041083     -7.28919756      3.35429329
    O     14.25052728     -2.79700521     -6.56571773      6.51669793
    C     14.82960472     -2.61276669     -9.12644222      3.93320563
    H     15.82339594     -2.64788850     -8.66062139      0.94312420
    H     14.92809996     -2.73395805    -10.20918880      0.95190061
    H     14.36970032     -1.64036383     -8.90563240      0.94304016
    C     14.96104171     -6.29147501     -6.46503987      4.12410389
    H     14.85682180     -6.21224940     -5.37673512      0.92739731
    H     15.56880073     -5.43388583     -6.77772696      0.92774632
    C     13.56380772     -6.19462425     -7.12186906      4.11512294
    H     13.68103866     -6.28394775     -8.21229739      0.92193932
    O     12.43585505     -7.34887493     -5.30672482      6.34179805
    C     12.66707321     -7.35212984     -6.65828860      3.35427687
    O     12.19397802     -8.20559128     -7.39100882      6.51668535
    C     11.60882803     -8.41334253     -4.83606161      3.93338878
    H     12.06587972     -9.38529899     -5.06397559      0.94272271
    H     11.50353095     -8.30256066     -3.75287538      0.95195409
    H     10.61828182     -8.36919135     -5.30790023      0.94310447
    C     15.68561383     -7.59344771     -6.82284004      4.12413316
    H     15.07759230     -8.45108683     -6.51097391      0.92747137
    H     15.78977119     -7.67126822     -7.91120076      0.92719472
    C     17.08320286     -7.69167834     -6.16696140      4.11504512
    H     16.96681921     -7.60679412     -5.07605545      0.92227161
    O     18.20716128     -6.53456952     -7.98098749      6.34153342
    C     17.97875080     -6.53248704     -6.62917762      3.35412627
    O     18.45297287     -5.67958478     -5.89646586      6.51716822
    C     19.03534612     -5.47238467     -8.45400855      3.93321025
    H     20.02811783     -5.52070217     -7.98706217      0.94318831
    H     19.13460419     -5.58234964     -9.53788702      0.95200120
    H     18.58273078     -4.49873599     -8.22391080      0.94290694
    C     19.15280735     -9.16656166     -5.81668282      4.12389975
    H     19.04004437     -9.10478510     -4.72808401      0.92776871
    H     19.75870624     -8.30139128     -6.11218788      0.92809137
    C     17.75975696     -9.06567488     -6.48188932      4.11517020
    H     17.88389597     -9.14478205     -7.57237604      0.92209752
    O     16.63140201    -10.24413790     -4.68342223      6.34173736
    C     16.86274439    -10.22915156     -6.03453116      3.35399774
    O     16.39134058    -11.07353731     -6.77886419      6.51715102
    C     15.81173830    -11.31976048     -4.22518263      3.93363713
    H     16.27020266    -12.28580377     -4.47368148      0.94171310
    H     15.71504042    -11.22809846     -3.13937709      0.95212079
    H     14.81728827    -11.27084465     -4.68822937      0.94333926
    C     19.88644176    -10.45926691     -6.18897236      4.12455681
    H     19.29439970    -11.32552645     -5.86948414      0.92866105
    H     19.97280297    -10.53294799     -7.27929668      0.92788595
    C     21.29601008    -10.54250909     -5.55931398      4.11492968
    H     21.20152634    -10.46230927     -4.46594023      0.92195553
    O     22.33769039     -9.33602004     -7.39160210      6.34085873
    C     22.17643800     -9.37643231     -6.03126874      3.35166247
    O     22.69989264     -8.55443966     -5.29552882      6.52163260
    C     23.15762094     -8.26971169     -7.87009607      3.93341333
    H     24.16139414     -8.32712151     -7.42909286      0.94174962
    H     23.22892341     -8.36390656     -8.95755948      0.95152572
    H     22.71422365     -7.29794771     -7.61423719      0.94466314
    C     23.40993641    -11.97085927     -5.34364683      4.21939803
    H     23.41872235    -11.85709851     -4.26077054      0.91940326
    H     24.02550338    -11.17964131     -5.76987170      0.92166642
    C     21.97745958    -11.91060869     -5.89039834      4.09997392
    H     22.01263000    -12.02071029     -6.98463322      0.92413198
    O     20.98953166    -13.02366801     -3.97348401      6.33974545
    C     21.15489108    -13.08134540     -5.33216722      3.35371734
    O     20.69500956    -13.99370916     -6.00055851      6.52051375
    C     20.25821182    -14.11052108     -3.40657508      3.93337124
    H     20.76898135    -15.06226519     -3.60313341      0.94174781
    H     20.19553010    -13.94460941     -2.32724339      0.95158283
    H     19.24662549    -14.15780998     -3.83114587      0.94431318
    H     23.87482629    -12.92557724     -5.58570319      0.92568508
