   26
Geometry Step: 54
    C      3.14826374      0.89410857     -8.74911885      4.22020387
    H      2.51013713      0.08321945     -8.39952340      0.92207492
    H      2.65762476      1.83635798     -8.50832146      0.92663911
    H      3.22104027      0.82029137     -9.83330039      0.92035056
    C      4.53558470      0.82064959     -8.09903072      4.09975443
    H      4.41951278      0.90265235     -7.00803010      0.92429415
    O      5.63707118      2.00515640     -9.90907374      6.33870171
    C      5.40593357      1.99819537     -8.55960900      3.35114075
    O      5.85715027      2.86224354     -7.82303075      6.52560324
    C      6.42763988      3.09550655    -10.38223891      3.93350649
    H      7.41301978      3.09690223     -9.89786507      0.94334295
    H      6.55074586      2.97554517    -11.46247463      0.95133475
    H      5.92967133      4.05156125    -10.17320820      0.94299866
    C      6.63374496     -0.60672585     -7.77891678      4.22030020
    H      6.57619025     -0.52289855     -6.69461686      0.92003769
    H      7.26537497      0.20216161     -8.14457126      0.92246645
    C      5.23766755     -0.54183942     -8.41057586      4.09965182
    H      5.33893322     -0.63290931     -9.50232952      0.92424009
    O      4.17952191     -1.71456435     -6.56943403      6.33869603
    C      4.37312860     -1.71371520     -7.92484414      3.35132919
    O      3.89368193     -2.57544919     -8.64609536      6.52543882
    C      3.38453678     -2.79045213     -6.07160929      3.93344277
    H      3.84395298     -3.75627074     -6.31961813      0.94219806
    H      3.31965951     -2.68367756     -4.98492320      0.95128909
    H      2.37577497     -2.75694821     -6.50443195      0.94423862
    H      7.12325231     -1.54980178     -8.01845402      0.92672559
