66
Polymer generated by RDKit
C -0.217345 0.903658 -1.168343
H 0.503356 0.642590 -1.965705
H -0.939214 1.605220 -1.525852
H 0.406067 1.418807 -0.380079
C -0.744766 -0.402134 -0.600031
C -1.523710 -0.344099 0.614653
C -2.743219 0.399850 0.754538
O -3.294000 1.092341 -0.141717
O -3.397905 0.366569 2.006520
C -4.613475 1.104031 2.166602
C -1.367076 -1.209544 -1.662359
C -2.458125 -0.683397 -2.412773
C -2.275847 0.554033 -3.220356
O -3.113527 1.478740 -3.091204
O -1.187741 0.588145 -4.064956
C -0.936140 1.731039 -4.890524
C -3.547923 -1.544017 -2.910022
C -4.351914 -2.307837 -1.915291
C -5.036912 -1.470756 -0.902722
C -5.976581 -0.460912 -1.428347
O -6.292014 -0.351750 -2.646766
O -6.522290 0.417292 -0.455997
C -7.424126 1.392229 -0.979241
C -8.630290 0.667343 -1.531122
C -9.272616 -0.057375 -0.334690
C -9.644291 1.045871 0.642767
O -8.758302 1.477509 1.400069
O -10.957538 1.457088 0.580052
C -11.432830 2.466949 1.426096
C -11.279363 2.034705 2.860834
H -12.314811 1.922416 3.266932
H -10.792658 1.043935 2.902771
H -10.726803 2.793696 3.456346
C 0.173093 -2.490834 0.373380
H -0.327089 -3.032439 -0.453390
H -0.521095 -2.420359 1.211694
H 1.098523 -3.060646 0.593534
C 0.606113 -1.140753 -0.186519
C 1.331058 -0.316287 0.750813
C 0.849957 0.066250 2.044701
O 1.457398 1.068550 2.606867
O -0.167457 -0.469575 2.798392
C -0.507533 0.050537 4.086460
C 1.353223 -1.392759 -1.462229
C 2.704677 -2.096579 -1.163097
C 3.283654 -2.285281 -2.565497
O 2.525303 -1.766732 -3.469496
O 4.445526 -2.921183 -2.818642
C 4.915313 -3.055344 -4.147893
C 3.648050 -1.038078 -0.568477
C 4.984680 -1.556297 -0.196043
C 4.913871 -2.630333 0.871433
C 6.305244 -3.079285 1.237864
O 6.734253 -4.224449 0.999354
O 7.087100 -2.141431 1.856904
C 8.434624 -2.343860 2.298187
C 8.917523 -0.987105 2.878052
C 8.865839 0.047458 1.750028
C 9.293649 1.370322 2.244528
O 8.726689 1.885422 3.266721
O 10.298950 2.047050 1.610492
C 10.798756 3.312811 1.974877
C 11.936587 3.683463 1.034859
H 11.803083 4.674232 0.605993
H 11.996363 2.929701 0.196226
H 12.898007 3.541581 1.593743
